soils.sol: written by SWAT+ editor v2.1.4 on 2022-11-22 14:57 for SWAT+ rev.60.5.4
name                            nly           hyd_grp        dp_tot    anion_excl      perc_crk  texture                              dp            bd           awc        soil_k        carbon          clay          silt          sand          rock           alb        usle_k            ec         caco3            ph  
1413.0                            6                 C    2000.00000       0.50000       0.50000  WIT_texture                
                                                                                                                                50.00000       1.08600       0.14980      36.22000       6.31200      17.61000      39.70000      42.70000      14.54000       0.21570       0.13930       0.00000       0.00000       0.00000  
                                                                                                                               100.00000       1.16400       0.14890      35.06000       5.71500      17.81000      39.53000      42.66000      15.04000       0.21570       0.13930       0.00000       0.00000       0.00000  
                                                                                                                               300.00000       1.27500       0.14470      31.25000       2.95100      19.14000      38.16000      42.70000      14.91000       0.21610       0.14650       0.00000       0.00000       0.00000  
                                                                                                                               600.00000       1.37600       0.13960      28.03000       2.12700      20.19000      36.34000      43.47000      16.42000       0.21640       0.15450       0.00000       0.00000       0.00000  
                                                                                                                              1000.00000       1.42600       0.13800      27.83000       1.92500      19.86000      35.40000      44.72000      17.83000       0.21680       0.15690       0.00000       0.00000       0.00000  
                                                                                                                              2000.00000       1.44300       0.13670      28.50000       1.79500      19.45000      34.38000      46.20000      18.89000       0.21720       0.15800       0.00000       0.00000       0.00000  
1410.0                            6                 C    2000.00000       0.50000       0.50000  WIT_texture                
                                                                                                                                50.00000       1.35600       0.13670      18.58000       2.20700      24.03000      39.47000      36.47000      14.31000       0.21480       0.14160       0.00000       0.00000       0.00000  
                                                                                                                               100.00000       1.37200       0.13640      17.64000       2.08600      24.44000      39.34000      36.16000      14.66000       0.21470       0.14220       0.00000       0.00000       0.00000  
                                                                                                                               300.00000       1.45200       0.13390      12.17000       1.19000      28.36000      37.16000      34.53000      13.47000       0.21360       0.15210       0.00000       0.00000       0.00000  
                                                                                                                               600.00000       1.49600       0.13000      10.12000       0.64840      30.78000      35.28000      33.97000      13.99000       0.21310       0.16100       0.00000       0.00000       0.00000  
                                                                                                                              1000.00000       1.53000       0.12840      10.24000       0.50050      30.23000      34.50000      35.25000      15.10000       0.21350       0.16280       0.00000       0.00000       0.00000  
                                                                                                                              2000.00000       1.53500       0.12700      10.66000       0.36650      29.25000      33.62000      37.12000      16.40000       0.21370       0.16370       0.00000       0.00000       0.00000  
1374.0                            6                 C    2000.00000       0.50000       0.50000  WIT_texture                
                                                                                                                                50.00000       1.34000       0.13640      15.81000       2.29100      25.90000      39.94000      33.94000      13.40000       0.21410       0.14200       0.00000       0.00000       0.00000  
                                                                                                                               100.00000       1.35700       0.13600      14.32000       2.13700      27.10000      39.70000      33.47000      13.84000       0.21360       0.14250       0.00000       0.00000       0.00000  
                                                                                                                               300.00000       1.43300       0.13480      11.19000       1.23100      29.58000      38.16000      32.28000      13.18000       0.21310       0.15230       0.00000       0.00000       0.00000  
                                                                                                                               600.00000       1.48000       0.13110       9.72000       0.69700      31.38000      36.47000      32.20000      14.16000       0.21280       0.16100       0.00000       0.00000       0.00000  
                                                                                                                              1000.00000       1.51700       0.12950      10.03000       0.54350      30.60000      35.70000      33.75000      15.40000       0.21340       0.16300       0.00000       0.00000       0.00000  
                                                                                                                              2000.00000       1.52200       0.12790      10.45000       0.41020      29.62000      34.66000      35.72000      16.70000       0.21370       0.16380       0.00000       0.00000       0.00000  
942.0                             6                 C    2000.00000       0.50000       0.50000  WIT_texture                
                                                                                                                                50.00000       1.34200       0.13700      12.73000       2.25600      29.20000      40.16000      30.70000      11.51000       0.21250       0.14030       0.00000       0.00000       0.00000  
                                                                                                                               100.00000       1.35600       0.13680      12.24000       2.17200      29.56000      40.03000      30.44000      11.91000       0.21240       0.14090       0.00000       0.00000       0.00000  
                                                                                                                               300.00000       1.43750       0.13550       9.60000       1.32000      32.20000      38.34000      29.48000      10.54000       0.21170       0.15080       0.00000       0.00000       0.00000  
                                                                                                                               600.00000       1.47700       0.13180       8.39000       0.78300      34.30000      36.56000      29.12000      10.94500       0.21130       0.15990       0.00000       0.00000       0.00000  
                                                                                                                              1000.00000       1.51300       0.13020       8.55000       0.65670      33.80000      35.94000      30.25000      11.83600       0.21180       0.16140       0.00000       0.00000       0.00000  
                                                                                                                              2000.00000       1.51700       0.12850       8.87500       0.52150      32.78000      35.16000      32.06000      13.01600       0.21240       0.16200       0.00000       0.00000       0.00000  
1881.0                            6                 B    2000.00000       0.50000       0.50000  WIT_texture                
                                                                                                                                50.00000       1.15300       0.15400      52.60000       5.86000      13.64000      33.12000      53.25000      13.38000       0.21690       0.13820       0.00000       0.00000       0.00000  
                                                                                                                               100.00000       1.22200       0.15320      50.28000       5.56600      13.86000      33.00000      53.16000      13.78000       0.21680       0.13810       0.00000       0.00000       0.00000  
                                                                                                                               300.00000       1.33600       0.14300      42.10000       3.00000      16.39000      32.20000      51.38000      12.83000       0.21740       0.14450       0.00000       0.00000       0.00000  
                                                                                                                               600.00000       1.42600       0.13830      34.97000       2.28700      17.88000      30.83000      51.28000      13.40000       0.21720       0.15160       0.00000       0.00000       0.00000  
                                                                                                                              1000.00000       1.47100       0.13730      34.16000       2.09200      17.53000      30.23000      52.22000      14.78000       0.21770       0.15400       0.00000       0.00000       0.00000  
                                                                                                                              2000.00000       1.48400       0.13700      35.70000       1.94500      16.90000      29.52000      53.53000      15.81000       0.21830       0.15560       0.00000       0.00000       0.00000  
1845.0                            6                 B    2000.00000       0.50000       0.50000  WIT_texture                
                                                                                                                                50.00000       1.05000       0.15940      54.03000       7.64500      12.84000      34.75000      52.47000      12.98400       0.21630       0.13940       0.00000       0.00000       0.00000  
                                                                                                                               100.00000       1.15200       0.15780      49.16000       7.16800      13.59000      34.78000      51.56000      13.40000       0.21610       0.13890       0.00000       0.00000       0.00000  
                                                                                                                               300.00000       1.26900       0.14900      45.97000       3.75600      14.89000      33.88000      51.20000      12.90000       0.21690       0.14330       0.00000       0.00000       0.00000  
                                                                                                                               600.00000       1.37100       0.14390      41.16000       2.97300      15.72000      32.50000      51.78000      13.73000       0.21730       0.14880       0.00000       0.00000       0.00000  
                                                                                                                              1000.00000       1.41800       0.14280      40.40000       2.77700      15.44500      31.88000      52.66000      15.09000       0.21780       0.15060       0.00000       0.00000       0.00000  
                                                                                                                              2000.00000       1.43600       0.14200      41.44000       2.64800      15.07000      31.12000      53.78000      16.02000       0.21830       0.15210       0.00000       0.00000       0.00000  
1884.0                            6                 B    2000.00000       0.50000       0.50000  WIT_texture                
                                                                                                                                50.00000       0.97560       0.17350      75.44000       9.76600       9.21000      31.02000      59.75000      11.24000       0.21560       0.13800       0.00000       0.00000       0.00000  
                                                                                                                               100.00000       1.10800       0.17160      71.30000       9.28000       9.27000      30.88000      59.84000      11.77000       0.21550       0.13780       0.00000       0.00000       0.00000  
                                                                                                                               300.00000       1.24100       0.16110      71.10000       4.95300       9.66400      30.08000      60.25000      11.21000       0.21720       0.14000       0.00000       0.00000       0.00000  
                                                                                                                               600.00000       1.36500       0.15600      66.10000       4.07000      10.20000      29.22000      60.56000      12.07000       0.21830       0.14250       0.00000       0.00000       0.00000  
                                                                                                                              1000.00000       1.42700       0.15490      65.40000       3.82600      10.15000      28.88000      60.94000      13.25000       0.21890       0.14340       0.00000       0.00000       0.00000  
                                                                                                                              2000.00000       1.44800       0.15400      66.60000       3.55700      10.03000      28.23000      61.72000      14.10000       0.21950       0.14430       0.00000       0.00000       0.00000  
1416.0                            6                 B    2000.00000       0.50000       0.50000  WIT_texture                
                                                                                                                                50.00000       0.79800       0.16940      58.78000      11.81000      10.55500      38.38000      51.06000      14.75000       0.21570       0.14250       0.00000       0.00000       0.00000  
                                                                                                                               100.00000       0.95800       0.16780      56.70000      10.46000      10.48000      38.06000      51.44000      15.30000       0.21610       0.14250       0.00000       0.00000       0.00000  
                                                                                                                               300.00000       1.09600       0.16100      59.88000       5.15600      10.51600      36.10000      53.44000      15.98000       0.21670       0.14300       0.00000       0.00000       0.00000  
                                                                                                                               600.00000       1.22950       0.15320      58.78000       4.01000      10.64000      34.38000      54.97000      18.50000       0.21830       0.14510       0.00000       0.00000       0.00000  
                                                                                                                              1000.00000       1.28500       0.15190      58.66000       3.77500      10.46000      33.88000      55.66000      20.05000       0.21880       0.14650       0.00000       0.00000       0.00000  
                                                                                                                              2000.00000       1.31300       0.15010      59.47000       3.54000      10.49000      32.78000      56.72000      20.88000       0.21940       0.14720       0.00000       0.00000       0.00000  
1377.0                            6                 C    2000.00000       0.50000       0.50000  WIT_texture                
                                                                                                                                50.00000       1.27000       0.13750      18.73000       2.89600      25.89000      38.62000      35.34000      10.61000       0.21390       0.13890       0.00000       0.00000       0.00000  
                                                                                                                               100.00000       1.29000       0.13700      17.17000       2.77700      27.02000      38.44000      34.94000      11.03000       0.21340       0.13850       0.00000       0.00000       0.00000  
                                                                                                                               300.00000       1.37100       0.13680      16.27000       1.85300      25.86000      38.38000      35.53000       9.92000       0.21440       0.14980       0.00000       0.00000       0.00000  
                                                                                                                               600.00000       1.41000       0.13420      14.96000       1.32400      26.92000      36.66000      36.44000      10.41000       0.21440       0.15670       0.00000       0.00000       0.00000  
                                                                                                                              1000.00000       1.44500       0.13330      15.30000       1.21900      26.28000      35.94000      37.78000      11.34000       0.21460       0.15820       0.00000       0.00000       0.00000  
                                                                                                                              2000.00000       1.45800       0.13220      15.97000       1.10100      25.50000      34.90000      39.60000      12.26600       0.21500       0.15930       0.00000       0.00000       0.00000  
1406.0                            6                 C    2000.00000       0.50000       0.50000  WIT_texture                
                                                                                                                                50.00000       1.33200       0.14060      31.69000       3.45000      21.78000      29.40000      48.80000      12.56000       0.21530       0.14220       0.00000       0.00000       0.00000  
                                                                                                                               100.00000       1.36500       0.14060      30.58000       3.25200      22.17000      29.27000      48.56000      13.00000       0.21510       0.14220       0.00000       0.00000       0.00000  
                                                                                                                               300.00000       1.43500       0.13420      24.17000       2.12700      25.47000      28.00000      47.53000      11.91400       0.21360       0.14550       0.00000       0.00000       0.00000  
                                                                                                                               600.00000       1.46700       0.13210      19.81000       1.64500      26.53000      26.72000      46.78000      12.12000       0.21340       0.14940       0.00000       0.00000       0.00000  
                                                                                                                              1000.00000       1.49500       0.13210      19.53000       1.49200      25.84000      26.48000      47.70000      12.69500       0.21370       0.15080       0.00000       0.00000       0.00000  
                                                                                                                              2000.00000       1.50700       0.13200      20.33000       1.34900      25.02000      25.77000      49.25000      14.08600       0.21420       0.15170       0.00000       0.00000       0.00000  
1409.0                            6                 C    2000.00000       0.50000       0.50000  WIT_texture                
                                                                                                                                50.00000       1.25800       0.14540      36.90000       4.54000      21.11000      28.66000      50.25000      11.15000       0.21480       0.13810       0.00000       0.00000       0.00000  
                                                                                                                               100.00000       1.30100       0.14550      35.75000       4.29000      21.44000      28.56000      50.03000      11.65000       0.21470       0.13770       0.00000       0.00000       0.00000  
                                                                                                                               300.00000       1.38300       0.13890      30.58000       2.71000      23.64000      26.72000      49.56000      10.37500       0.21410       0.14170       0.00000       0.00000       0.00000  
                                                                                                                               600.00000       1.42500       0.13640      24.72000       2.18200      24.48000      25.80000      49.72000      10.55500       0.21400       0.14660       0.00000       0.00000       0.00000  
                                                                                                                              1000.00000       1.46300       0.13640      24.28000       2.00800      23.77000      25.48000      50.75000      11.08600       0.21450       0.14780       0.00000       0.00000       0.00000  
                                                                                                                              2000.00000       1.47700       0.13640      25.67000       1.92300      22.89000      24.77000      52.34000      12.12500       0.21500       0.14890       0.00000       0.00000       0.00000  
1361.0                            6                 C    2000.00000       0.50000       0.50000  WIT_texture                
                                                                                                                                50.00000       1.16600       0.15220      38.75000       6.79300      21.80000      28.02000      50.30000      12.10000       0.21340       0.13380       0.00000       0.00000       0.00000  
                                                                                                                               100.00000       1.23100       0.15270      37.60000       6.31200      22.42000      26.98000      50.47000      12.61000       0.21300       0.13270       0.00000       0.00000       0.00000  
                                                                                                                               300.00000       1.31400       0.14560      33.03000       4.04700      23.73000      26.33000      49.94000      11.76000       0.21330       0.13640       0.00000       0.00000       0.00000  
                                                                                                                               600.00000       1.36400       0.14340      27.16000       3.48000      24.30000      25.47000      50.25000      12.05500       0.21330       0.13980       0.00000       0.00000       0.00000  
                                                                                                                              1000.00000       1.40800       0.14320      26.22000       3.27500      23.86000      25.16000      51.00000      12.62000       0.21360       0.14070       0.00000       0.00000       0.00000  
                                                                                                                              2000.00000       1.42200       0.14380      27.33000       3.58400      23.14000      24.53000      52.28000      13.53000       0.21400       0.14160       0.00000       0.00000       0.00000  
945.0                             6                 C    2000.00000       0.50000       0.50000  WIT_texture                
                                                                                                                                50.00000       1.25900       0.13770      17.36000       2.97500      27.14000      38.97000      34.16000       9.54000       0.21330       0.13810       0.00000       0.00000       0.00000  
                                                                                                                               100.00000       1.28000       0.13770      16.89000       2.88000      27.25000      38.94000      34.00000       9.98400       0.21310       0.13820       0.00000       0.00000       0.00000  
                                                                                                                               300.00000       1.36400       0.13770      16.20000       1.93200      25.89000      39.00000      34.80000       8.57000       0.21420       0.15060       0.00000       0.00000       0.00000  
                                                                                                                               600.00000       1.40100       0.13440      14.83600       1.40900      27.08000      37.20000      35.75000       8.84000       0.21420       0.15730       0.00000       0.00000       0.00000  
                                                                                                                              1000.00000       1.43700       0.13380      15.23400       1.32000      26.40000      36.50000      37.10000       9.59000       0.21460       0.15840       0.00000       0.00000       0.00000  
                                                                                                                              2000.00000       1.44900       0.13270      15.96000       1.20100      25.55000      35.53000      38.94000      10.48000       0.21500       0.15950       0.00000       0.00000       0.00000  
978.0                             6                 C    2000.00000       0.50000       0.50000  WIT_texture                
                                                                                                                                50.00000       1.32700       0.13620      14.90000       2.40000      27.00000      40.34000      33.12000      11.58000       0.21360       0.14040       0.00000       0.00000       0.00000  
                                                                                                                               100.00000       1.34200       0.13670      15.58600       2.32600      26.00000      40.47000      33.12000      12.01600       0.21410       0.14150       0.00000       0.00000       0.00000  
                                                                                                                               300.00000       1.42900       0.13560      11.41000       1.35700      29.34000      38.56000      32.12000      10.44500       0.21300       0.15160       0.00000       0.00000       0.00000  
                                                                                                                               600.00000       1.47500       0.13160       9.73000       0.79900      31.66000      36.60000      31.77000      10.74000       0.21260       0.16090       0.00000       0.00000       0.00000  
                                                                                                                              1000.00000       1.51300       0.12990       9.83000       0.66460      31.30000      35.78000      32.94000      11.75000       0.21300       0.16240       0.00000       0.00000       0.00000  
                                                                                                                              2000.00000       1.51800       0.12830      10.23400       0.52250      30.25000      34.88000      34.88000      12.85000       0.21350       0.16310       0.00000       0.00000       0.00000  
1257.0                            6                 C    2000.00000       0.50000       0.50000  WIT_texture                
                                                                                                                                50.00000       1.27100       0.14140      22.81000       2.45900      19.45000      50.75000      29.92000      11.37500       0.21790       0.14620       0.00000       0.00000       0.00000  
                                                                                                                               100.00000       1.29300       0.14170      22.23000       2.40800      19.64000      50.75000      29.73000      11.74000       0.21770       0.14690       0.00000       0.00000       0.00000  